6
Coordinates from ORCA-job opt
  C   -2.12305455783201      1.39165529781475     -0.06136481754057
  O   -1.06353645710269      1.06308855932468      0.82469364486071
  H   -1.86570591393467      2.20857410663785     -0.77952254838729
  H   -2.49494246066377      0.52022287258095     -0.65449260465713
  H   -2.96553621286809      1.75119331503172      0.56319402844205
  H   -0.32367439759876      0.74717584861006      0.27182229728223
